Version 4
SHEET 1 896 680
WIRE -576 -192 -576 -224
WIRE -576 -160 -576 -192
WIRE -32 -160 -80 -160
WIRE 96 -160 48 -160
WIRE 224 -160 96 -160
WIRE 336 -160 336 -208
WIRE 336 -160 288 -160
WIRE 336 -128 288 -128
WIRE 432 -96 288 -96
WIRE 432 64 432 -96
WIRE 528 64 432 64
WIRE -432 80 -624 80
WIRE -224 80 -432 80
WIRE -128 80 -128 48
WIRE -128 80 -160 80
WIRE 528 80 432 80
WIRE 768 80 592 80
WIRE -112 112 -160 112
WIRE 768 128 768 80
WIRE -80 144 -80 -160
WIRE -80 144 -160 144
WIRE -624 176 -624 80
WIRE 768 208 768 192
WIRE 768 320 768 288
WIRE -80 352 -80 144
WIRE -64 352 -80 352
WIRE 80 352 16 352
WIRE 224 352 80 352
WIRE 336 352 336 320
WIRE 336 352 288 352
WIRE 336 384 288 384
WIRE 432 416 432 80
WIRE 432 416 288 416
FLAG -128 48 +3.3V
FLAG 336 -208 +3.3V
FLAG 336 320 +3.3V
FLAG -432 -224 +3.3V
FLAG -432 -144 0
FLAG -624 256 0
FLAG -432 160 0
FLAG 96 -96 0
FLAG 80 416 0
FLAG -112 112 0
FLAG -224 112 Vth
FLAG 224 -128 Vth
FLAG 224 384 Vth
FLAG 336 -128 0
FLAG 336 384 0
FLAG -576 -80 0
FLAG -576 -304 +3.3V
FLAG -576 -192 Vth
FLAG 768 320 0
SYMBOL AutoGenerated\\ADCMP601 -192 112 R0
SYMATTR InstName U1
SYMBOL AutoGenerated\\ADCMP601 256 -128 R0
SYMATTR InstName U3
SYMBOL AutoGenerated\\ADCMP601 256 384 R0
SYMATTR InstName U5
SYMBOL voltage -624 160 R0
WINDOW 123 24 124 Left 2
WINDOW 39 24 152 Left 2
SYMATTR SpiceLine Rser=50
SYMATTR InstName V2
SYMATTR Value PULSE(0 5 0 1ns 1ns 50ns 100ns)
SYMBOL res 64 -176 R90
WINDOW 0 0 56 VBottom 2
WINDOW 3 32 56 VTop 2
SYMATTR InstName R1
SYMATTR Value 1k
SYMBOL res 32 336 R90
WINDOW 0 0 56 VBottom 2
WINDOW 3 32 56 VTop 2
SYMATTR InstName R2
SYMATTR Value 620
SYMBOL cap 80 -160 R0
SYMATTR InstName C1
SYMATTR Value 8pF
SYMBOL cap 64 352 R0
SYMATTR InstName C2
SYMATTR Value 8pF
SYMBOL voltage -432 -240 R0
WINDOW 123 0 0 Left 0
WINDOW 39 0 0 Left 0
SYMATTR InstName V3
SYMATTR Value 3.3
SYMBOL res -448 64 R0
SYMATTR InstName R3
SYMATTR Value 50
SYMBOL res -592 -320 R0
SYMATTR InstName R5
SYMATTR Value 1K
SYMBOL res -592 -176 R0
SYMATTR InstName R6
SYMATTR Value 1K
SYMBOL Digital\\xor 576 32 R0
WINDOW 39 -76 123 Left 2
SYMATTR InstName A1
SYMATTR SpiceLine Vhigh=3.3
SYMBOL res 752 192 R0
SYMATTR InstName R4
SYMATTR Value 1
SYMBOL LED 752 128 R0
SYMATTR InstName D1
SYMATTR Value NSCW100
TEXT 40 88 Left 2 !.tran 0 250ns 0 0.1ns
